!* Input file for uFEM 0.2.64 and above
!*
!* Simple 2D frame: modal analysis
!* 
!* Exact analysical frequencies are (by Cook et al, Concepts and
!* Applications of finite elemnt method, 4th edition, Wiley, 2002): 
!* 3.315 Hz, 35.08 Hz, 70.77 Hz, 122.7 Hz, 226.0 Hz
!*
!*  +----
!*  |   ^
!*  |   -
!*  ^
!* File: modal1.mac
!* Date: Fri Feb  1 11:25:31 CET 2013

!* initialiation:
cleardata
jobname,test-modal1

!* beam element:
et,1,3

!* rectangle 0.1x0.1m:
rs,1,3,0
r,area,1,1.000000e-02,0
r,iy,1,8.333333e-06,0
r,hinge_a,1,1.000000e+00,0
r,hinge_b,1,1.000000e+00,0

!* steel:
mat,1,1,0
mp,dens,1,7.860000e+03,0
mp,ex,1,2.000000e+11,0
mp,prxy,1,2.900000e-01,0

!* nodes:
n,1,0.000000e+00,0.000000e+00,0.000000e+00
n,2,0.000000e+00,1.500000e+00,0.000000e+00
n,3,0.000000e+00,3.000000e+00,0.000000e+00
n,4,1.000000e+00,3.000000e+00,0.000000e+00
n,5,2.000000e+00,3.000000e+00,0.000000e+00
n,6,0.000000e+00,7.500000e-01,0.000000e+00
n,7,0.000000e+00,2.250000e+00,0.000000e+00
n,8,5.000000e-01,3.000000e+00,0.000000e+00
n,9,1.500000e+00,3.000000e+00,0.000000e+00

!* elements:
ep,1,1,1,1,1
ep,2,1,1,1,1
ep,3,1,1,1,1
ep,4,1,1,1,1
ep,5,1,1,1,1
ep,6,1,1,1,1
ep,7,1,1,1,1
ep,8,1,1,1,1
e,1,1,6
e,2,6,2
e,3,2,7
e,4,7,3
e,5,3,8
e,6,8,4
e,7,4,9
e,8,9,5

!* left support is ux,uy, right is only uy:
d,1,ux,0.000000e+00,1
d,1,uy,0.000000e+00,1
d,5,uy,0.000000e+00,1

!* modal analysis by inverse iterations method:
solve,modal,5,50

!* show first mode shape:
set,1
pldef
eplot

